omf/solvers/opendss/ieee123_solarRamp.clean_reduced.dss
clear
new object=circuit.ieee123
edit object=vsource.source basekv=4.16 bus1=150.1.2.3 pu=1.00 r1=0 x1=0.0001 r0=0 x0=0.0001
new object=linecode.1 nphases=3 basefreq=60 units=kft rmatrix=[0.08666667,0.02954546,0.02907197|0.02954546,0.08837121,0.02992424|0.02907197,0.02992424,0.08740530] xmatrix=[0.20416667,0.09501894,0.07289773|0.09501894,0.19852273,0.08022727|0.07289773,0.08022727,0.20172349] cmatrix=[2.85171007,-0.92029379,-0.35075557|-0.92029379,3.00463186,-0.58501125|-0.35075557,-0.58501125,2.71134756]
new object=linecode.2 nphases=3 basefreq=60 units=kft rmatrix=[0.08837121,0.02992424,0.02954546|0.02992424,0.08740530,0.02907197|0.02954546,0.02907197,0.08666667] xmatrix=[0.19852273,0.08022727,0.09501894|0.08022727,0.20172349,0.07289773|0.09501894,0.07289773,0.20416667] cmatrix=[3.00463186,-0.58501125,-0.92029379|-0.58501125,2.71134756,-0.35075557|-0.92029379,-0.35075557,2.85171007]
new object=linecode.3 nphases=3 basefreq=60 units=kft rmatrix=[0.08740530,0.02907197,0.02992424|0.02907197,0.08666667,0.02954546|0.02992424,0.02954546,0.08837121] xmatrix=[0.20172349,0.07289773,0.08022727|0.07289773,0.20416667,0.09501894|0.08022727,0.09501894,0.19852273] cmatrix=[2.71134756,-0.35075557,-0.58501125|-0.35075557,2.85171007,-0.92029379|-0.58501125,-0.92029379,3.00463186]
new object=linecode.4 nphases=3 basefreq=60 units=kft rmatrix=[0.08740530,0.02992424,0.02907197|0.02992424,0.08837121,0.02954546|0.02907197,0.02954546,0.08666667] xmatrix=[0.20172349,0.08022727,0.07289773|0.08022727,0.19852273,0.09501894|0.07289773,0.09501894,0.20416667] cmatrix=[2.71134756,0.58501125,-0.35075557|0.58501125,3.00463186,-0.92029379|-0.35075557,-0.92029379,2.85171007]
new object=linecode.5 nphases=3 basefreq=60 units=kft rmatrix=[0.08837121,0.02954546,0.02992424|0.02954546,0.08666667,0.02907197|0.02992424,0.02907197,0.08740530] xmatrix=[0.19852273,0.09501894,0.08022727|0.09501894,0.20416667,0.07289773|0.08022727,0.07289773,0.20172349] cmatrix=[3.00463186,-0.92029379,-0.58501125|-0.92029379,2.85171007,-0.35075557|-0.58501125,-0.35075557,2.71134756]
new object=linecode.6 nphases=3 basefreq=60 units=kft rmatrix=[0.08666667,0.02907197,0.02954546|0.02907197,0.08740530,0.02992424|0.02954546,0.02992424,0.08837121] xmatrix=[0.20416667,0.07289773,0.09501894|0.07289773,0.20172349,0.08022727|0.09501894,0.08022727,0.19852273] cmatrix=[2.85171007,-0.35075557,-0.92029379|-0.35075557,2.71134756,-0.58501125|-0.92029379,-0.58501125,3.00463186]
new object=linecode.7 nphases=2 basefreq=60 units=kft rmatrix=[0.08666667,0.02907197|0.02907197,0.08740530] xmatrix=[0.20416667,0.07289773|0.07289773,0.20172349] cmatrix=[2.56982960,-0.52995137|-0.52995137,2.59746001]
new object=linecode.8 nphases=2 basefreq=60 units=kft rmatrix=[0.08666667,0.02907197|0.02907197,0.08740530] xmatrix=[0.20416667,0.07289773|0.07289773,0.20172349] cmatrix=[2.56982960,-0.52995137|-0.52995137,2.59746001]
new object=linecode.9 nphases=1 basefreq=60 units=kft rmatrix=[0.25174242] xmatrix=[0.25520833] cmatrix=[2.27036613]
new object=linecode.10 nphases=1 basefreq=60 units=kft rmatrix=[0.25174242] xmatrix=[0.25520833] cmatrix=[2.27036613]
new object=linecode.11 nphases=1 basefreq=60 units=kft rmatrix=[0.25174242] xmatrix=[0.25520833] cmatrix=[2.27036613]
new object=linecode.12 nphases=3 basefreq=60 units=kft rmatrix=[0.28804924,0.09844697,0.09325758|0.09844697,0.29032197,0.09844697|0.09325758,0.09844697,0.28804924] xmatrix=[0.14244318,0.05255682,0.04085227|0.05255682,0.13564394,0.05255682|0.04085227,0.05255682,0.14244318] cmatrix=[33.77150149,0.00000000,0.00000000|0.00000000,33.77150149,0.00000000|0.00000000,0.00000000,33.77150149]
new object=linecode.300 nphases=3 basefreq=60 rmatrix=[0.25318182,0.03979167,0.04034091|0.03979167,0.25071970,0.03912879|0.04034091,0.03912879,0.25178030] xmatrix=[0.25270833,0.10945076,0.09498106|0.10945076,0.25698864,0.08695076|0.09498106,0.08695076,0.25513258] cmatrix=[2.68015031,-0.76928101,-0.49950768|-0.76928101,2.56103810,-0.31207298|-0.49950768,-0.31207298,2.45559039]
new object=linecode.301 nphases=3 basefreq=60 rmatrix=[0.36553030,0.04407197,0.04467803|0.04407197,0.36282197,0.04333333|0.04467803,0.04333333,0.36399621] xmatrix=[0.26732955,0.12200758,0.10778409|0.12200758,0.27047349,0.09920455|0.10778409,0.09920455,0.26910985] cmatrix=[2.57249216,-0.72160598,-0.47232940|-0.72160598,2.46438188,-0.29896110|-0.47232940,-0.29896110,2.36888112]
new object=linecode.302 nphases=1 basefreq=60 rmatrix=[0.53020800] xmatrix=[0.28134500] cmatrix=[2.12257000]
new object=linecode.303 nphases=1 basefreq=60 rmatrix=[0.53020800] xmatrix=[0.28134500] cmatrix=[2.12257000]
new object=linecode.304 nphases=1 basefreq=60 rmatrix=[0.36395800] xmatrix=[0.26916700] cmatrix=[2.19220000]
new object=linecode.400 nphases=3 basefreq=60 rmatrix=[0.08820500,0.03121370,0.03062640|0.03121370,0.09019460,0.03161430|0.03062640,0.03161430,0.08896650] xmatrix=[0.20744000,0.09353140,0.07603120|0.09353140,0.20078300,0.08558790|0.07603120,0.08558790,0.20487700] cmatrix=[2.90301000,-0.67933500,-0.22313000|-0.67933500,3.15896000,-0.48141600|-0.22313000,-0.48141600,2.89650000]
new object=linecode.601 nphases=3 basefreq=60 rmatrix=[0.06562500,0.02954546,0.02992424|0.02954546,0.06392046,0.02907197|0.02992424,0.02907197,0.06465909] xmatrix=[0.19278409,0.09501894,0.08022727|0.09501894,0.19844697,0.07289773|0.08022727,0.07289773,0.19598485] cmatrix=[3.16483804,-1.00263243,-0.63273652|-1.00263243,2.99398159,-0.37260871|-0.63273652,-0.37260871,2.83267020]
new object=linecode.602 nphases=3 basefreq=60 rmatrix=[0.14253788,0.02992424,0.02954546|0.02992424,0.14157197,0.02907197|0.02954546,0.02907197,0.14083333] xmatrix=[0.22375000,0.08022727,0.09501894|0.08022727,0.22695076,0.07289773|0.09501894,0.07289773,0.22939394] cmatrix=[2.86301342,-0.54341492,-0.84925850|-0.54341492,2.60203159,-0.33096214|-0.84925850,-0.33096214,2.72516277]
new object=linecode.603 nphases=2 basefreq=60 rmatrix=[0.25178030,0.03912879|0.03912879,0.25071970] xmatrix=[0.25513258,0.08695076|0.08695076,0.25698864] cmatrix=[2.36601760,-0.45208384|-0.45208384,2.34396351]
new object=linecode.604 nphases=2 basefreq=60 rmatrix=[0.25071970,0.03912879|0.03912879,0.25178030] xmatrix=[0.25698864,0.08695076|0.08695076,0.25513258] cmatrix=[2.34396351,-0.45208384|-0.45208384,2.36601760]
new object=linecode.605 nphases=1 basefreq=60 rmatrix=[0.25174242] xmatrix=[0.25520833] cmatrix=[2.27036613]
new object=linecode.606 nphases=3 basefreq=60 rmatrix=[0.15117424,0.06045455,0.05395833|0.06045455,0.14945076,0.06045455|0.05395833,0.06045455,0.15117424] xmatrix=[0.08452652,0.00621212,-0.00270833|0.00621212,0.07653409,0.00621212|-0.00270833,0.00621212,0.08452652] cmatrix=[48.67459408,0.00000000,0.00000000|0.00000000,48.67459408,0.00000000|0.00000000,0.00000000,48.67459408]
new object=linecode.607 nphases=1 basefreq=60 rmatrix=[0.25426136] xmatrix=[0.09704546] cmatrix=[44.70661522]
new object=linecode.721 nphases=3 basefreq=60 rmatrix=[0.05541667,0.01274621,0.00638258|0.01274621,0.05011364,0.01274621|0.00638258,0.01274621,0.05541667] xmatrix=[0.03736742,-0.00696970,-0.00789773|-0.00696970,0.03598485,-0.00696970|-0.00789773,-0.00696970,0.03736742] cmatrix=[80.27484728,0.00000000,0.00000000|0.00000000,80.27484728,0.00000000|0.00000000,0.00000000,80.27484728]
new object=linecode.722 nphases=3 basefreq=60 rmatrix=[0.08998106,0.03085227,0.02337121|0.03085227,0.08500000,0.03085227|0.02337121,0.03085227,0.08998106] xmatrix=[0.05630682,-0.00617424,-0.01149621|-0.00617424,0.05071970,-0.00617424|-0.01149621,-0.00617424,0.05630682] cmatrix=[64.21841090,0.00000000,0.00000000|0.00000000,64.21841090,0.00000000|0.00000000,0.00000000,64.21841090]
new object=linecode.723 nphases=3 basefreq=60 rmatrix=[0.24500000,0.09225379,0.08683712|0.09225379,0.24662879,0.09225379|0.08683712,0.09225379,0.24500000] xmatrix=[0.12714015,0.03998106,0.02880682|0.03998106,0.11981061,0.03998106|0.02880682,0.03998106,0.12714015] cmatrix=[37.59771120,0.00000000,0.00000000|0.00000000,37.59771120,0.00000000|0.00000000,0.00000000,37.59771120]
new object=linecode.724 nphases=3 basefreq=60 rmatrix=[0.39681818,0.09856061,0.09329546|0.09856061,0.39901515,0.09856061|0.09329546,0.09856061,0.39681818] xmatrix=[0.14693182,0.05185606,0.04020833|0.05185606,0.14011364,0.05185606|0.04020833,0.05185606,0.14693182] cmatrix=[30.26701029,0.00000000,0.00000000|0.00000000,30.26701029,0.00000000|0.00000000,0.00000000,30.26701029]
new object=loadshape.default npts=24 interval=1 mult=[0.677,0.6256,0.6087,0.5833,0.58028,0.6025,0.657,0.7477,0.832,0.88,0.94,0.989,0.985,0.98,0.9898,0.999,1,0.958,0.936,0.913,0.876,0.876,0.828,0.756]
new object=loadshape.solarramp npts=300 interval=0.00027777778 mult=[1,1,1,1,1,1,1,1,1,1,1,1,1,1,1,1,1,1,1,1,1,1,1,1,1,1,1,1,1,1,1,1,1,1,1,1,1,1,1,1,1,1,1,1,1,1,1,1,1,1,1,1,1,1,1,1,1,1,1,1,1,1,1,1,1,1,1,1,1,1,1,1,1,1,1,1,1,1,1,1,1,1,1,1,1,0.99,0.99,0.99,0.99,0.99,0.99,0.99,0.98,0.97,0.96,0.95,0.94,0.93,0.92,0.91,0.9,0.8,0.7,0.6,0.5,0.4,0.3,0.2,0.01,0.01,0.01,0.01,0.01,0.01,0.01,0.01,0.01,0.01,0.01,0.01,0.01,0.01,0.01,0.01,0.01,0.01,0.01,0.01,0.01,0.01,0.01,0.01,0.01,0.01,0.01,0.01,0.01,0.01,0.01,0.01,0.01,0.01,0.01,0.01,0.01,0.01,0.01,0.01,0.01,0.01,0.01,0.01,0.01,0.01,0.01,0.01,0.01,0.01,0.01,0.01,0.01,0.01,0.01,0.01,0.01,0.2,0.25,0.3,0.35,0.4,0.45,0.5,0.55,0.6,0.65,0.7,0.75,0.8,0.85,0.87,0.89,0.92,0.93,0.94,0.95,0.96,0.975,0.98,0.99,0.995,1,1,1,1,1,1,1,1,1,1,1,1,1,1,1,1,1,1,1,1,1,1,1,1,1,1,1,1,1,1,1,1,1,1,1,1,1,1,1,1,1,1,1,1,1,1,1,1,1,1,1,1,1,1,1,1,1,1,1,1,1,1,1,1,1,1,1,1,1,1,1,1,1,1,1,1,1,1,1,1,1,1,1,1,1,1,1,1,1,1,1,1,1,1,1,1,1,1,1,1,1,1,1,1,1,1,1,1,1,1]
new object=growthshape.default npts=2 year=(1,20) mult=(1.025,1.025)
new object=tcc_curve.a npts=5 c_array=[1,2.5,4.5,8,14] t_array=[0.15,0.07,0.05,0.045,0.045]
new object=tcc_curve.d npts=5 c_array=[1,2.5,4.5,8,14] t_array=[6,0.7,0.2,0.06,0.02]
new object=tcc_curve.tlink npts=7 c_array=[2,2.1,3,4,6,22,50] t_array=[300,100,10.1,4,1.4,0.1,0.02]
new object=tcc_curve.klink npts=6 c_array=[2,2.2,3,4,6,30] t_array=[300,20,4,1.3,0.41,0.02]
new object=tcc_curve.uv1547 npts=2 c_array=[0.5,0.9] t_array=[0.166,2]
new object=tcc_curve.ov1547 npts=2 c_array=[1.1,1.2] t_array=[2,0.166]
new object=tcc_curve.mod_inv npts=15 c_array=[1.1,1.3,1.5,2,3,4,5,6,7,8,9,10,20,50,100] t_array=[27.1053,9.9029,6.439,3.8032,2.4322,1.9458,1.6883,1.5255,1.4117,1.3267,1.2604,1.2068,0.9481,0.7468,0.6478]
new object=tcc_curve.very_inv npts=15 c_array=[1.1,1.3,1.5,2,3,4,5,6,7,8,9,10,20,50,100] t_array=[93.872,28.9113,16.179,7.0277,2.9423,1.7983,1.3081,1.0513,0.8995,0.8023,0.7361,0.6891,0.5401,0.4988,0.493]
new object=tcc_curve.ext_inv npts=15 c_array=[1.1,1.3,1.5,2,3,4,5,6,7,8,9,10,20,50,100] t_array=[134.407,40.9913,22.6817,9.5217,3.6467,2.0017,1.2967,0.9274,0.7092,0.5693,0.4742,0.4065,0.1924,0.133,0.1245]
new object=tcc_curve.definite npts=3 c_array=[1,1.001,100] t_array=[300,1,1]
new object=spectrum.default numharm=7 harmonic=(1,3,5,7,9,11,13) %mag=(100,33,20,14,11,9,7) angle=(0,0,0,0,0,0,0)
new object=spectrum.defaultload numharm=7 harmonic=(1,3,5,7,9,11,13) %mag=(100,1.5,20,14,1,9,7) angle=(0,180,180,180,180,180,180)
new object=spectrum.defaultgen numharm=7 harmonic=(1,3,5,7,9,11,13) %mag=(100,5,3,1.5,1,0.7,0.5) angle=(0,0,0,0,0,0,0)
new object=spectrum.defaultvsource numharm=1 harmonic=(1) %mag=(100) angle=(0)
new object=spectrum.linear numharm=1 harmonic=(1) %mag=(100) angle=(0)
new object=spectrum.pwm6 numharm=13 harmonic=(1,3,5,7,9,11,13,15,17,19,21,23,25) %mag=(100,4.4,76.5,62.7,2.9,24.8,12.7,0.5,7.1,8.4,0.9,4.4,3.3) angle=(-103,-5,28,-180,-33,-59,79,36,-253,-124,3,-30,86)
new object=spectrum.dc6 numharm=10 harmonic=(1,3,5,7,9,11,13,15,17,19) %mag=(100,1.2,33.6,1.6,0.4,8.7,1.2,0.3,4.5,1.3) angle=(-75,28,156,29,-91,49,54,148,-57,-46)
new object=line.l115 bus1=149.1.2.3 bus2=1.1.2.3 linecode=1 seasons=1 ratings=[400] normamps=400 emergamps=600 length=0.4 units=kft
new object=line.l1 phases=1 bus1=1.2 bus2=2.2 linecode=10 seasons=1 ratings=[400] normamps=400 emergamps=600 length=0.175 units=kft
new object=line.l2 phases=1 bus1=1.3 bus2=3.3 linecode=11 seasons=1 ratings=[400] normamps=400 emergamps=600 length=0.25 units=kft
new object=line.l3 phases=3 bus1=1.1.2.3 bus2=7.1.2.3 linecode=1 seasons=1 ratings=[400] normamps=400 emergamps=600 length=0.3 units=kft
new object=line.l4 phases=1 bus1=3.3 bus2=4.3 linecode=11 seasons=1 ratings=[400] normamps=400 emergamps=600 length=0.2 units=kft
new object=line.l5 phases=1 bus1=3.3 bus2=5.3 linecode=11 seasons=1 ratings=[400] normamps=400 emergamps=600 length=0.325 units=kft
new object=line.l6 phases=1 bus1=5.3 bus2=6.3 linecode=11 seasons=1 ratings=[400] normamps=400 emergamps=600 length=0.25 units=kft
new object=line.l7 phases=3 bus1=7.1.2.3 bus2=8.1.2.3 linecode=1 seasons=1 ratings=[400] normamps=400 emergamps=600 length=0.2 units=kft
new object=line.l8 phases=1 bus1=8.2 bus2=12.2 linecode=10 seasons=1 ratings=[400] normamps=400 emergamps=600 length=0.225 units=kft
new object=line.l9 phases=1 bus1=8.1 bus2=9.1 linecode=9 seasons=1 ratings=[400] normamps=400 emergamps=600 length=0.225 units=kft
new object=line.l10 phases=3 bus1=8.1.2.3 bus2=13.1.2.3 linecode=1 seasons=1 ratings=[400] normamps=400 emergamps=600 length=0.3 units=kft
new object=line.l11 phases=1 bus1=9r.1 bus2=14.1 linecode=9 seasons=1 ratings=[400] normamps=400 emergamps=600 length=0.425 units=kft
new object=line.l12 phases=1 bus1=13.3 bus2=34.3 linecode=11 seasons=1 ratings=[400] normamps=400 emergamps=600 length=0.15 units=kft
new object=line.l13 phases=3 bus1=13.1.2.3 bus2=18.1.2.3 linecode=2 seasons=1 ratings=[400] normamps=400 emergamps=600 length=0.825 units=kft
new object=line.l14 phases=1 bus1=14.1 bus2=11.1 linecode=9 seasons=1 ratings=[400] normamps=400 emergamps=600 length=0.25 units=kft
new object=line.l15 phases=1 bus1=14.1 bus2=10.1 linecode=9 seasons=1 ratings=[400] normamps=400 emergamps=600 length=0.25 units=kft
new object=line.l16 phases=1 bus1=15.3 bus2=16.3 linecode=11 seasons=1 ratings=[400] normamps=400 emergamps=600 length=0.375 units=kft
new object=line.l17 phases=1 bus1=15.3 bus2=17.3 linecode=11 seasons=1 ratings=[400] normamps=400 emergamps=600 length=0.35 units=kft
new object=line.l18 phases=1 bus1=18.1 bus2=19.1 linecode=9 seasons=1 ratings=[400] normamps=400 emergamps=600 length=0.25 units=kft
new object=line.l19 phases=3 bus1=18.1.2.3 bus2=21.1.2.3 linecode=2 seasons=1 ratings=[400] normamps=400 emergamps=600 length=0.3 units=kft
new object=line.l20 phases=1 bus1=19.1 bus2=20.1 linecode=9 seasons=1 ratings=[400] normamps=400 emergamps=600 length=0.325 units=kft
new object=line.l21 phases=1 bus1=21.2 bus2=22.2 linecode=10 seasons=1 ratings=[400] normamps=400 emergamps=600 length=0.525 units=kft
new object=line.l22 phases=3 bus1=21.1.2.3 bus2=23.1.2.3 linecode=2 seasons=1 ratings=[400] normamps=400 emergamps=600 length=0.25 units=kft
new object=line.l23 phases=1 bus1=23.3 bus2=24.3 linecode=11 seasons=1 ratings=[400] normamps=400 emergamps=600 length=0.55 units=kft
new object=line.l24 phases=3 bus1=23.1.2.3 bus2=25.1.2.3 linecode=2 seasons=1 ratings=[400] normamps=400 emergamps=600 length=0.275 units=kft
new object=line.l25 phases=2 bus1=25r.1.3 bus2=26.1.3 linecode=7 seasons=1 ratings=[400] normamps=400 emergamps=600 length=0.35 units=kft
new object=line.l26 phases=3 bus1=25.1.2.3 bus2=28.1.2.3 linecode=2 seasons=1 ratings=[400] normamps=400 emergamps=600 length=0.2 units=kft
new object=line.l27 phases=2 bus1=26.1.3 bus2=27.1.3 linecode=7 seasons=1 ratings=[400] normamps=400 emergamps=600 length=0.275 units=kft
new object=line.l28 phases=1 bus1=26.3 bus2=31.3 linecode=11 seasons=1 ratings=[400] normamps=400 emergamps=600 length=0.225 units=kft
new object=line.l29 phases=1 bus1=27.1 bus2=33.1 linecode=9 seasons=1 ratings=[400] normamps=400 emergamps=600 length=0.5 units=kft
new object=line.l30 phases=3 bus1=28.1.2.3 bus2=29.1.2.3 linecode=2 seasons=1 ratings=[400] normamps=400 emergamps=600 length=0.3 units=kft
new object=line.l31 phases=3 bus1=29.1.2.3 bus2=30.1.2.3 linecode=2 seasons=1 ratings=[400] normamps=400 emergamps=600 length=0.35 units=kft
new object=line.l32 phases=3 bus1=30.1.2.3 bus2=250.1.2.3 linecode=2 seasons=1 ratings=[400] normamps=400 emergamps=600 length=0.2 units=kft
new object=line.l33 phases=1 bus1=31.3 bus2=32.3 linecode=11 seasons=1 ratings=[400] normamps=400 emergamps=600 length=0.3 units=kft
new object=line.l34 phases=1 bus1=34.3 bus2=15.3 linecode=11 seasons=1 ratings=[400] normamps=400 emergamps=600 length=0.1 units=kft
new object=line.l35 phases=2 bus1=35.1.2 bus2=36.1.2 linecode=8 seasons=1 ratings=[400] normamps=400 emergamps=600 length=0.65 units=kft
new object=line.l36 phases=3 bus1=35.1.2.3 bus2=40.1.2.3 linecode=1 seasons=1 ratings=[400] normamps=400 emergamps=600 length=0.25 units=kft
new object=line.l37 phases=1 bus1=36.1 bus2=37.1 linecode=9 seasons=1 ratings=[400] normamps=400 emergamps=600 length=0.3 units=kft
new object=line.l38 phases=1 bus1=36.2 bus2=38.2 linecode=10 seasons=1 ratings=[400] normamps=400 emergamps=600 length=0.25 units=kft
new object=line.l39 phases=1 bus1=38.2 bus2=39.2 linecode=10 seasons=1 ratings=[400] normamps=400 emergamps=600 length=0.325 units=kft
new object=line.l40 phases=1 bus1=40.3 bus2=41.3 linecode=11 seasons=1 ratings=[400] normamps=400 emergamps=600 length=0.325 units=kft
new object=line.l41 phases=3 bus1=40.1.2.3 bus2=42.1.2.3 linecode=1 seasons=1 ratings=[400] normamps=400 emergamps=600 length=0.25 units=kft
new object=line.l42 phases=1 bus1=42.2 bus2=43.2 linecode=10 seasons=1 ratings=[400] normamps=400 emergamps=600 length=0.5 units=kft
new object=line.l43 phases=3 bus1=42.1.2.3 bus2=44.1.2.3 linecode=1 seasons=1 ratings=[400] normamps=400 emergamps=600 length=0.2 units=kft
new object=line.l44 phases=1 bus1=44.1 bus2=45.1 linecode=9 seasons=1 ratings=[400] normamps=400 emergamps=600 length=0.2 units=kft
new object=line.l45 phases=3 bus1=44.1.2.3 bus2=47.1.2.3 linecode=1 seasons=1 ratings=[400] normamps=400 emergamps=600 length=0.25 units=kft
new object=line.l46 phases=1 bus1=45.1 bus2=46.1 linecode=9 seasons=1 ratings=[400] normamps=400 emergamps=600 length=0.3 units=kft
new object=line.l47 phases=3 bus1=47.1.2.3 bus2=48.1.2.3 linecode=4 seasons=1 ratings=[400] normamps=400 emergamps=600 length=0.15 units=kft
new object=line.l48 phases=3 bus1=47.1.2.3 bus2=49.1.2.3 linecode=4 seasons=1 ratings=[400] normamps=400 emergamps=600 length=0.25 units=kft
new object=line.l49 phases=3 bus1=49.1.2.3 bus2=50.1.2.3 linecode=4 seasons=1 ratings=[400] normamps=400 emergamps=600 length=0.25 units=kft
new object=line.l50 phases=3 bus1=50.1.2.3 bus2=51.1.2.3 linecode=4 seasons=1 ratings=[400] normamps=400 emergamps=600 length=0.25 units=kft
new object=line.l51 phases=3 bus1=51.1.2.3 bus2=151.1.2.3 linecode=4 seasons=1 ratings=[400] normamps=400 emergamps=600 length=0.5 units=kft
new object=line.l52 phases=3 bus1=52.1.2.3 bus2=53.1.2.3 linecode=1 seasons=1 ratings=[400] normamps=400 emergamps=600 length=0.2 units=kft
new object=line.l53 phases=3 bus1=53.1.2.3 bus2=54.1.2.3 linecode=1 seasons=1 ratings=[400] normamps=400 emergamps=600 length=0.125 units=kft
new object=line.l54 phases=3 bus1=54.1.2.3 bus2=55.1.2.3 linecode=1 seasons=1 ratings=[400] normamps=400 emergamps=600 length=0.275 units=kft
new object=line.l55 phases=3 bus1=54.1.2.3 bus2=57.1.2.3 linecode=3 seasons=1 ratings=[400] normamps=400 emergamps=600 length=0.35 units=kft
new object=line.l56 phases=3 bus1=55.1.2.3 bus2=56.1.2.3 linecode=1 seasons=1 ratings=[400] normamps=400 emergamps=600 length=0.275 units=kft
new object=line.l57 phases=1 bus1=57.2 bus2=58.2 linecode=10 seasons=1 ratings=[400] normamps=400 emergamps=600 length=0.25 units=kft
new object=line.l58 phases=3 bus1=57.1.2.3 bus2=60.1.2.3 linecode=3 seasons=1 ratings=[400] normamps=400 emergamps=600 length=0.75 units=kft
new object=line.l59 phases=1 bus1=58.2 bus2=59.2 linecode=10 seasons=1 ratings=[400] normamps=400 emergamps=600 length=0.25 units=kft
new object=line.l60 phases=3 bus1=60.1.2.3 bus2=61.1.2.3 linecode=5 seasons=1 ratings=[400] normamps=400 emergamps=600 length=0.55 units=kft
new object=line.l61 phases=3 bus1=60.1.2.3 bus2=62.1.2.3 linecode=12 seasons=1 ratings=[400] normamps=400 emergamps=600 length=0.25 units=kft
new object=line.l62 phases=3 bus1=62.1.2.3 bus2=63.1.2.3 linecode=12 seasons=1 ratings=[400] normamps=400 emergamps=600 length=0.175 units=kft
new object=line.l63 phases=3 bus1=63.1.2.3 bus2=64.1.2.3 linecode=12 seasons=1 ratings=[400] normamps=400 emergamps=600 length=0.35 units=kft
new object=line.l64 phases=3 bus1=64.1.2.3 bus2=65.1.2.3 linecode=12 seasons=1 ratings=[400] normamps=400 emergamps=600 length=0.425 units=kft
new object=line.l65 phases=3 bus1=65.1.2.3 bus2=66.1.2.3 linecode=12 seasons=1 ratings=[400] normamps=400 emergamps=600 length=0.325 units=kft
new object=line.l66 phases=1 bus1=67.1 bus2=68.1 linecode=9 seasons=1 ratings=[400] normamps=400 emergamps=600 length=0.2 units=kft
new object=line.l67 phases=3 bus1=67.1.2.3 bus2=72.1.2.3 linecode=3 seasons=1 ratings=[400] normamps=400 emergamps=600 length=0.275 units=kft
new object=line.l68 phases=3 bus1=67.1.2.3 bus2=97.1.2.3 linecode=3 seasons=1 ratings=[400] normamps=400 emergamps=600 length=0.25 units=kft
new object=line.l69 phases=1 bus1=68.1 bus2=69.1 linecode=9 seasons=1 ratings=[400] normamps=400 emergamps=600 length=0.275 units=kft
new object=line.l70 phases=1 bus1=69.1 bus2=70.1 linecode=9 seasons=1 ratings=[400] normamps=400 emergamps=600 length=0.325 units=kft
new object=line.l71 phases=1 bus1=70.1 bus2=71.1 linecode=9 seasons=1 ratings=[400] normamps=400 emergamps=600 length=0.275 units=kft
new object=line.l72 phases=1 bus1=72.3 bus2=73.3 linecode=11 seasons=1 ratings=[400] normamps=400 emergamps=600 length=0.275 units=kft
new object=line.l73 phases=3 bus1=72.1.2.3 bus2=76.1.2.3 linecode=3 seasons=1 ratings=[400] normamps=400 emergamps=600 length=0.2 units=kft
new object=line.l74 phases=1 bus1=73.3 bus2=74.3 linecode=11 seasons=1 ratings=[400] normamps=400 emergamps=600 length=0.35 units=kft
new object=line.l75 phases=1 bus1=74.3 bus2=75.3 linecode=11 seasons=1 ratings=[400] normamps=400 emergamps=600 length=0.4 units=kft
new object=line.l76 phases=3 bus1=76.1.2.3 bus2=77.1.2.3 linecode=6 seasons=1 ratings=[400] normamps=400 emergamps=600 length=0.4 units=kft
new object=line.l77 phases=3 bus1=76.1.2.3 bus2=86.1.2.3 linecode=3 seasons=1 ratings=[400] normamps=400 emergamps=600 length=0.7 units=kft
new object=line.l78 phases=3 bus1=77.1.2.3 bus2=78.1.2.3 linecode=6 seasons=1 ratings=[400] normamps=400 emergamps=600 length=0.1 units=kft
new object=line.l79 phases=3 bus1=78.1.2.3 bus2=79.1.2.3 linecode=6 seasons=1 ratings=[400] normamps=400 emergamps=600 length=0.225 units=kft
new object=line.l80 phases=3 bus1=78.1.2.3 bus2=80.1.2.3 linecode=6 seasons=1 ratings=[400] normamps=400 emergamps=600 length=0.475 units=kft
new object=line.l81 phases=3 bus1=80.1.2.3 bus2=81.1.2.3 linecode=6 seasons=1 ratings=[400] normamps=400 emergamps=600 length=0.175 units=kft
new object=line.l82 phases=3 bus1=81.1.2.3 bus2=82.1.2.3 linecode=6 seasons=1 ratings=[400] normamps=400 emergamps=600 length=0.25 units=kft
new object=line.l83 phases=1 bus1=81.3 bus2=84.3 linecode=11 seasons=1 ratings=[400] normamps=400 emergamps=600 length=0.675 units=kft
new object=line.l84 phases=3 bus1=82.1.2.3 bus2=83.1.2.3 linecode=6 seasons=1 ratings=[400] normamps=400 emergamps=600 length=0.25 units=kft
new object=line.l85 phases=1 bus1=84.3 bus2=85.3 linecode=11 seasons=1 ratings=[400] normamps=400 emergamps=600 length=0.475 units=kft
new object=line.l86 phases=3 bus1=86.1.2.3 bus2=87.1.2.3 linecode=6 seasons=1 ratings=[400] normamps=400 emergamps=600 length=0.45 units=kft
new object=line.l87 phases=1 bus1=87.1 bus2=88.1 linecode=9 seasons=1 ratings=[400] normamps=400 emergamps=600 length=0.175 units=kft
new object=line.l88 phases=3 bus1=87.1.2.3 bus2=89.1.2.3 linecode=6 seasons=1 ratings=[400] normamps=400 emergamps=600 length=0.275 units=kft
new object=line.l89 phases=1 bus1=89.2 bus2=90.2 linecode=10 seasons=1 ratings=[400] normamps=400 emergamps=600 length=0.25 units=kft
new object=line.l90 phases=3 bus1=89.1.2.3 bus2=91.1.2.3 linecode=6 seasons=1 ratings=[400] normamps=400 emergamps=600 length=0.225 units=kft
new object=line.l91 phases=1 bus1=91.3 bus2=92.3 linecode=11 seasons=1 ratings=[400] normamps=400 emergamps=600 length=0.3 units=kft
new object=line.l92 phases=3 bus1=91.1.2.3 bus2=93.1.2.3 linecode=6 seasons=1 ratings=[400] normamps=400 emergamps=600 length=0.225 units=kft
new object=line.l93 phases=1 bus1=93.1 bus2=94.1 linecode=9 seasons=1 ratings=[400] normamps=400 emergamps=600 length=0.275 units=kft
new object=line.l94 phases=3 bus1=93.1.2.3 bus2=95.1.2.3 linecode=6 seasons=1 ratings=[400] normamps=400 emergamps=600 length=0.3 units=kft
new object=line.l95 phases=1 bus1=95.2 bus2=96.2 linecode=10 seasons=1 ratings=[400] normamps=400 emergamps=600 length=0.2 units=kft
new object=line.l96 phases=3 bus1=97.1.2.3 bus2=98.1.2.3 linecode=3 seasons=1 ratings=[400] normamps=400 emergamps=600 length=0.275 units=kft
new object=line.l97 phases=3 bus1=98.1.2.3 bus2=99.1.2.3 linecode=3 seasons=1 ratings=[400] normamps=400 emergamps=600 length=0.55 units=kft
new object=line.l98 phases=3 bus1=99.1.2.3 bus2=100.1.2.3 linecode=3 seasons=1 ratings=[400] normamps=400 emergamps=600 length=0.3 units=kft
new object=line.l99 phases=3 bus1=100.1.2.3 bus2=450.1.2.3 linecode=3 seasons=1 ratings=[400] normamps=400 emergamps=600 length=0.8 units=kft
new object=line.l118 phases=3 bus1=197.1.2.3 bus2=101.1.2.3 linecode=3 seasons=1 ratings=[400] normamps=400 emergamps=600 length=0.25 units=kft
new object=line.l100 phases=1 bus1=101.3 bus2=102.3 linecode=11 seasons=1 ratings=[400] normamps=400 emergamps=600 length=0.225 units=kft
new object=line.l101 phases=3 bus1=101.1.2.3 bus2=105.1.2.3 linecode=3 seasons=1 ratings=[400] normamps=400 emergamps=600 length=0.275 units=kft
new object=line.l102 phases=1 bus1=102.3 bus2=103.3 linecode=11 seasons=1 ratings=[400] normamps=400 emergamps=600 length=0.325 units=kft
new object=line.l103 phases=1 bus1=103.3 bus2=104.3 linecode=11 seasons=1 ratings=[400] normamps=400 emergamps=600 length=0.7 units=kft
new object=line.l104 phases=1 bus1=105.2 bus2=106.2 linecode=10 seasons=1 ratings=[400] normamps=400 emergamps=600 length=0.225 units=kft
new object=line.l105 phases=3 bus1=105.1.2.3 bus2=108.1.2.3 linecode=3 seasons=1 ratings=[400] normamps=400 emergamps=600 length=0.325 units=kft
new object=line.l106 phases=1 bus1=106.2 bus2=107.2 linecode=10 seasons=1 ratings=[400] normamps=400 emergamps=600 length=0.575 units=kft
new object=line.l107 phases=1 bus1=108.1 bus2=109.1 linecode=9 seasons=1 ratings=[400] normamps=400 emergamps=600 length=0.45 units=kft
new object=line.l108 phases=3 bus1=108.1.2.3 bus2=300.1.2.3 linecode=3 seasons=1 ratings=[400] normamps=400 emergamps=600 length=1 units=kft
new object=line.l109 phases=1 bus1=109.1 bus2=110.1 linecode=9 seasons=1 ratings=[400] normamps=400 emergamps=600 length=0.3 units=kft
new object=line.l110 phases=1 bus1=110.1 bus2=111.1 linecode=9 seasons=1 ratings=[400] normamps=400 emergamps=600 length=0.575 units=kft
new object=line.l111 phases=1 bus1=110.1 bus2=112.1 linecode=9 seasons=1 ratings=[400] normamps=400 emergamps=600 length=0.125 units=kft
new object=line.l112 phases=1 bus1=112.1 bus2=113.1 linecode=9 seasons=1 ratings=[400] normamps=400 emergamps=600 length=0.525 units=kft
new object=line.l113 phases=1 bus1=113.1 bus2=114.1 linecode=9 seasons=1 ratings=[400] normamps=400 emergamps=600 length=0.325 units=kft
new object=line.l114 phases=3 bus1=135.1.2.3 bus2=35.1.2.3 linecode=4 seasons=1 ratings=[400] normamps=400 emergamps=600 length=0.375 units=kft
new object=line.l116 phases=3 bus1=152.1.2.3 bus2=52.1.2.3 linecode=1 seasons=1 ratings=[400] normamps=400 emergamps=600 length=0.4 units=kft
new object=line.l117 phases=3 bus1=160r.1.2.3 bus2=67.1.2.3 linecode=6 seasons=1 ratings=[400] normamps=400 emergamps=600 length=0.35 units=kft
new object=line.sw1 phases=3 bus1=150r.1.2.3 bus2=149.1.2.3 r1=0.001 r0=0.001 x1=0 x0=0 c1=0 c0=0 length=0.001 switch=true
new object=line.sw2 phases=3 bus1=13.1.2.3 bus2=152.1.2.3 r1=0.001 r0=0.001 x1=0 x0=0 c1=0 c0=0 length=0.001 switch=true
new object=line.sw3 phases=3 bus1=18.1.2.3 bus2=135.1.2.3 r1=0.001 r0=0.001 x1=0 x0=0 c1=0 c0=0 length=0.001 switch=true
new object=line.sw4 phases=3 bus1=60.1.2.3 bus2=160.1.2.3 r1=0.001 r0=0.001 x1=0 x0=0 c1=0 c0=0 length=0.001 switch=true
new object=line.sw5 phases=3 bus1=97.1.2.3 bus2=197.1.2.3 r1=0.001 r0=0.001 x1=0 x0=0 c1=0 c0=0 length=0.001 switch=true
new object=line.sw6 phases=3 bus1=61.1.2.3 bus2=61s.1.2.3 r1=0.001 r0=0.001 x1=0 x0=0 c1=0 c0=0 length=0.001 switch=true
new object=line.sw7 phases=3 bus1=151.1.2.3 bus2=300_open.1.2.3 r1=0.001 r0=0.001 x1=0 x0=0 c1=0 c0=0 length=0.001 switch=true
new object=line.sw8 phases=1 bus1=54.1 bus2=94_open.1 r1=0.001 r0=0.001 x1=0 x0=0 c1=0 c0=0 length=0.001 switch=true
new object=load.s1a bus1=1.1 phases=1 conn=wye model=1 kv=2.4 kw=40 kvar=20
new object=load.s2b bus1=2.2 phases=1 conn=wye model=1 kv=2.4 kw=20 kvar=10
new object=load.s4c bus1=4.3 phases=1 conn=wye model=1 kv=2.4 kw=40 kvar=20
new object=load.s5c bus1=5.3 phases=1 conn=wye model=5 kv=2.4 kw=20 kvar=10
new object=load.s6c bus1=6.3 phases=1 conn=wye model=2 kv=2.4 kw=40 kvar=20
new object=load.s7a bus1=7.1 phases=1 conn=wye model=1 kv=2.4 kw=20 kvar=10
new object=load.s9a bus1=9.1 phases=1 conn=wye model=1 kv=2.4 kw=40 kvar=20
new object=load.s10a bus1=10.1 phases=1 conn=wye model=5 kv=2.4 kw=20 kvar=10
new object=load.s11a bus1=11.1 phases=1 conn=wye model=2 kv=2.4 kw=40 kvar=20
new object=load.s12b bus1=12.2 phases=1 conn=wye model=1 kv=2.4 kw=20 kvar=10
new object=load.s16c bus1=16.3 phases=1 conn=wye model=1 kv=2.4 kw=40 kvar=20
new object=load.s17c bus1=17.3 phases=1 conn=wye model=1 kv=2.4 kw=20 kvar=10
new object=load.s19a bus1=19.1 phases=1 conn=wye model=1 kv=2.4 kw=40 kvar=20
new object=load.s20a bus1=20.1 phases=1 conn=wye model=5 kv=2.4 kw=40 kvar=20
new object=load.s22b bus1=22.2 phases=1 conn=wye model=2 kv=2.4 kw=40 kvar=20
new object=load.s24c bus1=24.3 phases=1 conn=wye model=1 kv=2.4 kw=40 kvar=20
new object=load.s28a bus1=28.1 phases=1 conn=wye model=5 kv=2.4 kw=40 kvar=20
new object=load.s29a bus1=29.1 phases=1 conn=wye model=2 kv=2.4 kw=40 kvar=20
new object=load.s30c bus1=30.3 phases=1 conn=wye model=1 kv=2.4 kw=40 kvar=20
new object=load.s31c bus1=31.3 phases=1 conn=wye model=1 kv=2.4 kw=20 kvar=10
new object=load.s32c bus1=32.3 phases=1 conn=wye model=1 kv=2.4 kw=20 kvar=10
new object=load.s33a bus1=33.1 phases=1 conn=wye model=5 kv=2.4 kw=40 kvar=20
new object=load.s34c bus1=34.3 phases=1 conn=wye model=2 kv=2.4 kw=40 kvar=20
new object=load.s35a bus1=35.1.2 phases=1 conn=delta model=1 kv=4.16 kw=40 kvar=20
new object=load.s37a bus1=37.1 phases=1 conn=wye model=2 kv=2.4 kw=40 kvar=20
new object=load.s38b bus1=38.2 phases=1 conn=wye model=5 kv=2.4 kw=20 kvar=10
new object=load.s39b bus1=39.2 phases=1 conn=wye model=1 kv=2.4 kw=20 kvar=10
new object=load.s41c bus1=41.3 phases=1 conn=wye model=1 kv=2.4 kw=20 kvar=10
new object=load.s42a bus1=42.1 phases=1 conn=wye model=1 kv=2.4 kw=20 kvar=10
new object=load.s43b bus1=43.2 phases=1 conn=wye model=2 kv=2.4 kw=40 kvar=20
new object=load.s45a bus1=45.1 phases=1 conn=wye model=5 kv=2.4 kw=20 kvar=10
new object=load.s46a bus1=46.1 phases=1 conn=wye model=1 kv=2.4 kw=20 kvar=10
new object=load.s47 bus1=47.1.2.3 phases=3 conn=wye model=5 kv=4.16 kw=105 kvar=75
new object=load.s48 bus1=48.1.2.3 phases=3 conn=wye model=2 kv=4.16 kw=210 kvar=150
new object=load.s49a bus1=49.1 phases=1 conn=wye model=1 kv=2.4 kw=35 kvar=25
new object=load.s49b bus1=49.2 phases=1 conn=wye model=1 kv=2.4 kw=70 kvar=50
new object=load.s49c bus1=49.3 phases=1 conn=wye model=1 kv=2.4 kw=35 kvar=20
new object=load.s50c bus1=50.3 phases=1 conn=wye model=1 kv=2.4 kw=40 kvar=20
new object=load.s51a bus1=51.1 phases=1 conn=wye model=1 kv=2.4 kw=20 kvar=10
new object=load.s52a bus1=52.1 phases=1 conn=wye model=1 kv=2.4 kw=40 kvar=20
new object=load.s53a bus1=53.1 phases=1 conn=wye model=1 kv=2.4 kw=40 kvar=20
new object=load.s55a bus1=55.1 phases=1 conn=wye model=2 kv=2.4 kw=20 kvar=10
new object=load.s56b bus1=56.2 phases=1 conn=wye model=1 kv=2.4 kw=20 kvar=10
new object=load.s58b bus1=58.2 phases=1 conn=wye model=5 kv=2.4 kw=20 kvar=10
new object=load.s59b bus1=59.2 phases=1 conn=wye model=1 kv=2.4 kw=20 kvar=10
new object=load.s60a bus1=60.1 phases=1 conn=wye model=1 kv=2.4 kw=20 kvar=10
new object=load.s62c bus1=62.3 phases=1 conn=wye model=2 kv=2.4 kw=40 kvar=20
new object=load.s63a bus1=63.1 phases=1 conn=wye model=1 kv=2.4 kw=40 kvar=20
new object=load.s64b bus1=64.2 phases=1 conn=wye model=5 kv=2.4 kw=75 kvar=35
new object=load.s65a bus1=65.1.2 phases=1 conn=delta model=2 kv=4.16 kw=35 kvar=25
new object=load.s65b bus1=65.2.3 phases=1 conn=delta model=2 kv=4.16 kw=35 kvar=25
new object=load.s65c bus1=65.3.1 phases=1 conn=delta model=2 kv=4.16 kw=70 kvar=50
new object=load.s66c bus1=66.3 phases=1 conn=wye model=1 kv=2.4 kw=75 kvar=35
new object=load.s68a bus1=68.1 phases=1 conn=wye model=1 kv=2.4 kw=20 kvar=10
new object=load.s69a bus1=69.1 phases=1 conn=wye model=1 kv=2.4 kw=40 kvar=20
new object=load.s70a bus1=70.1 phases=1 conn=wye model=1 kv=2.4 kw=20 kvar=10
new object=load.s71a bus1=71.1 phases=1 conn=wye model=1 kv=2.4 kw=40 kvar=20
new object=load.s73c bus1=73.3 phases=1 conn=wye model=1 kv=2.4 kw=40 kvar=20
new object=load.s74c bus1=74.3 phases=1 conn=wye model=2 kv=2.4 kw=40 kvar=20
new object=load.s75c bus1=75.3 phases=1 conn=wye model=1 kv=2.4 kw=40 kvar=20
new object=load.s76a bus1=76.1.2 phases=1 conn=delta model=5 kv=4.16 kw=105 kvar=80
new object=load.s76b bus1=76.2.3 phases=1 conn=delta model=5 kv=4.16 kw=70 kvar=50
new object=load.s76c bus1=76.3.1 phases=1 conn=delta model=5 kv=4.16 kw=70 kvar=50
new object=load.s77b bus1=77.2 phases=1 conn=wye model=1 kv=2.4 kw=40 kvar=20
new object=load.s79a bus1=79.1 phases=1 conn=wye model=2 kv=2.4 kw=40 kvar=20
new object=load.s80b bus1=80.2 phases=1 conn=wye model=1 kv=2.4 kw=40 kvar=20
new object=load.s82a bus1=82.1 phases=1 conn=wye model=1 kv=2.4 kw=40 kvar=20
new object=load.s83c bus1=83.3 phases=1 conn=wye model=1 kv=2.4 kw=20 kvar=10
new object=load.s84c bus1=84.3 phases=1 conn=wye model=1 kv=2.4 kw=20 kvar=10
new object=load.s85c bus1=85.3 phases=1 conn=wye model=1 kv=2.4 kw=40 kvar=20
new object=load.s86b bus1=86.2 phases=1 conn=wye model=1 kv=2.4 kw=20 kvar=10
new object=load.s87b bus1=87.2 phases=1 conn=wye model=1 kv=2.4 kw=40 kvar=20
new object=load.s88a bus1=88.1 phases=1 conn=wye model=1 kv=2.4 kw=40 kvar=20
new object=load.s90b bus1=90.2 phases=1 conn=wye model=5 kv=2.4 kw=40 kvar=20
new object=load.s92c bus1=92.3 phases=1 conn=wye model=1 kv=2.4 kw=40 kvar=20
new object=load.s94a bus1=94.1 phases=1 conn=wye model=1 kv=2.4 kw=40 kvar=20
new object=load.s95b bus1=95.2 phases=1 conn=wye model=1 kv=2.4 kw=20 kvar=10
new object=load.s96b bus1=96.2 phases=1 conn=wye model=1 kv=2.4 kw=20 kvar=10
new object=load.s98a bus1=98.1 phases=1 conn=wye model=1 kv=2.4 kw=40 kvar=20
new object=load.s99b bus1=99.2 phases=1 conn=wye model=1 kv=2.4 kw=40 kvar=20
new object=load.s100c bus1=100.3 phases=1 conn=wye model=2 kv=2.4 kw=40 kvar=20
new object=load.s102c bus1=102.3 phases=1 conn=wye model=1 kv=2.4 kw=20 kvar=10
new object=load.s103c bus1=103.3 phases=1 conn=wye model=1 kv=2.4 kw=40 kvar=20
new object=load.s104c bus1=104.3 phases=1 conn=wye model=1 kv=2.4 kw=40 kvar=20
new object=load.s106b bus1=106.2 phases=1 conn=wye model=1 kv=2.4 kw=40 kvar=20
new object=load.s107b bus1=107.2 phases=1 conn=wye model=1 kv=2.4 kw=40 kvar=20
new object=load.s109a bus1=109.1 phases=1 conn=wye model=1 kv=2.4 kw=40 kvar=20
new object=load.s111a bus1=111.1 phases=1 conn=wye model=1 kv=2.4 kw=20 kvar=10
new object=load.s112a bus1=112.1 phases=1 conn=wye model=5 kv=2.4 kw=20 kvar=10
new object=load.s113a bus1=113.1 phases=1 conn=wye model=2 kv=2.4 kw=40 kvar=20
new object=load.s114a bus1=114.1 phases=1 conn=wye model=1 kv=2.4 kw=20 kvar=10
new object=transformer.reg1a phases=3 windings=2 buses=[150.1.2.3,150r.1.2.3] conns=[wye,wye] kvs=[4.16,4.16] kvas=[5000,5000] xhl=0.001 %loadloss=0.00001 ppm_antifloat=0
new object=transformer.xfm1 phases=3 windings=2 xhl=2.72 buses=[61s.1.2.3,610.1.2.3] conns=[delta,delta] kvs=[4.16,0.48] kvas=[150,150] taps=[1,1] %rs=[0.635,0.635]
new object=transformer.reg2a phases=1 windings=2 bank=reg2 buses=[9.1,9r.1] conns=[wye,wye] kvs=[2.402,2.402] kvas=[2000,2000] xhl=0.01 %loadloss=0.00001 ppm_antifloat=0
new object=transformer.reg3a phases=1 windings=2 bank=reg3 buses=[25.1,25r.1] conns=[wye,wye] kvs=[2.402,2.402] kvas=[2000,2000] xhl=0.01 %loadloss=0.00001 ppm_antifloat=0
new object=transformer.reg4a phases=1 windings=2 bank=reg4 buses=[160.1,160r.1] conns=[wye,wye] kvs=[2.402,2.402] kvas=[2000,2000] xhl=0.01 %loadloss=0.00001 ppm_antifloat=0
new object=transformer.reg3c phases=1 windings=2 bank=reg3 buses=[25.3,25r.3] conns=[wye,wye] kvs=[2.402,2.402] kvas=[2000,2000] xhl=0.01 %loadloss=0.00001 ppm_antifloat=0
new object=transformer.reg4b phases=1 windings=2 bank=reg4 buses=[160.2,160r.2] conns=[wye,wye] kvs=[2.402,2.402] kvas=[2000,2000] xhl=0.01 %loadloss=0.00001 ppm_antifloat=0
new object=transformer.reg4c phases=1 windings=2 bank=reg4 buses=[160.3,160r.3] conns=[wye,wye] kvs=[2.402,2.402] kvas=[2000,2000] xhl=0.01 %loadloss=0.00001 ppm_antifloat=0
new object=regcontrol.creg1a transformer=reg1a winding=2 tapwinding=2 vreg=120 band=2 ptratio=20 ctprim=700 r=3 x=7.5 maxtapchange=1 delay=15
new object=regcontrol.creg2a transformer=reg2a winding=2 tapwinding=2 vreg=120 band=2 ptratio=20 ctprim=50 r=0.4 x=0.4 maxtapchange=1 delay=30
new object=regcontrol.creg3a transformer=reg3a winding=2 tapwinding=2 vreg=120 band=1 ptratio=20 ctprim=50 r=0.4 x=0.4 maxtapchange=1 delay=30
new object=regcontrol.creg3c transformer=reg3c winding=2 tapwinding=2 vreg=120 band=1 ptratio=20 ctprim=50 r=0.4 x=0.4 maxtapchange=1 delay=30
new object=regcontrol.creg4a transformer=reg4a winding=2 tapwinding=2 vreg=124 band=2 ptratio=20 ctprim=300 r=0.6 x=1.3 maxtapchange=1 delay=30
new object=regcontrol.creg4b transformer=reg4b winding=2 tapwinding=2 vreg=124 band=2 ptratio=20 ctprim=300 r=1.4 x=2.6 maxtapchange=1 delay=30
new object=regcontrol.creg4c transformer=reg4c winding=2 tapwinding=2 vreg=124 band=2 ptratio=20 ctprim=300 r=0.2 x=1.4 maxtapchange=1 delay=30
new object=capacitor.c83 bus1=83.1.2.3 phases=3 kvar=[600] kv=4.16
new object=capacitor.c88a bus1=88.1 phases=1 kvar=[50] kv=2.402
new object=capacitor.c90b bus1=90.2 phases=1 kvar=[50] kv=2.402
new object=capacitor.c92c bus1=92.3 phases=1 kvar=[50] kv=2.402
new object=generator.2mwgen bus1=450.1.2.3 kv=4.16 kw=2000 pf=1 duty=solarramp
new object=monitor.mon1 element=line.l99 terminal=1
makebuslist
set voltagebases=[4.16,0.48]
setbusxy bus=1 x=700 y=1500
setbusxy bus=2 x=700 y=1675
setbusxy bus=3 x=700 y=1250
setbusxy bus=4 x=700 y=1050
setbusxy bus=5 x=1025 y=1250
setbusxy bus=6 x=1275 y=1150
setbusxy bus=7 x=1000 y=1500
setbusxy bus=8 x=1200 y=1500
setbusxy bus=9 x=1200 y=1725
setbusxy bus=10 x=1450 y=2150
setbusxy bus=11 x=950 y=2150
setbusxy bus=12 x=1200 y=1275
setbusxy bus=13 x=1500 y=1500
setbusxy bus=14 x=1200 y=2150
setbusxy bus=15 x=1500 y=1250
setbusxy bus=16 x=1500 y=875
setbusxy bus=17 x=1850 y=1250
setbusxy bus=18 x=1500 y=2325
setbusxy bus=19 x=1250 y=2325
setbusxy bus=20 x=925 y=2325
setbusxy bus=21 x=1500 y=2625
setbusxy bus=22 x=975 y=2625
setbusxy bus=23 x=1500 y=2875
setbusxy bus=24 x=950 y=2875
setbusxy bus=25 x=1500 y=3150
setbusxy bus=26 x=1150 y=3150
setbusxy bus=27 x=875 y=3150
setbusxy bus=28 x=1500 y=3350
setbusxy bus=29 x=1500 y=3650
setbusxy bus=30 x=1850 y=3650
setbusxy bus=31 x=1150 y=3375
setbusxy bus=32 x=1150 y=3675
setbusxy bus=33 x=875 y=3650
setbusxy bus=34 x=1500 y=1350
setbusxy bus=35 x=1975 y=2325
setbusxy bus=36 x=2075 y=2000
setbusxy bus=37 x=1775 y=2000
setbusxy bus=38 x=2325 y=2000
setbusxy bus=39 x=2650 y=2000
setbusxy bus=40 x=1975 y=2575
setbusxy bus=41 x=2300 y=2575
setbusxy bus=42 x=1975 y=2825
setbusxy bus=43 x=2475 y=2825
setbusxy bus=44 x=1975 y=3025
setbusxy bus=45 x=2175 y=3025
setbusxy bus=46 x=2475 y=3025
setbusxy bus=47 x=1975 y=3275
setbusxy bus=48 x=1825 y=3275
setbusxy bus=49 x=2225 y=3275
setbusxy bus=50 x=2475 y=3275
setbusxy bus=51 x=2725 y=3275
setbusxy bus=52 x=2000 y=1500
setbusxy bus=53 x=2200 y=1500
setbusxy bus=54 x=2325 y=1500
setbusxy bus=55 x=2600 y=1500
setbusxy bus=56 x=2875 y=1500
setbusxy bus=57 x=2325 y=1850
setbusxy bus=58 x=2075 y=1850
setbusxy bus=59 x=1825 y=1850
setbusxy bus=60 x=3075 y=1850
setbusxy bus=61 x=3075 y=1300
setbusxy bus=62 x=3075 y=2100
setbusxy bus=63 x=3075 y=2275
setbusxy bus=64 x=3075 y=2625
setbusxy bus=65 x=2650 y=2625
setbusxy bus=66 x=2650 y=2300
setbusxy bus=67 x=3525 y=1850
setbusxy bus=68 x=3725 y=1850
setbusxy bus=69 x=4000 y=1850
setbusxy bus=70 x=4325 y=1850
setbusxy bus=71 x=4600 y=1850
setbusxy bus=72 x=3525 y=1575
setbusxy bus=73 x=3800 y=1575
setbusxy bus=74 x=4150 y=1575
setbusxy bus=75 x=4550 y=1575
setbusxy bus=76 x=3525 y=1375
setbusxy bus=77 x=3925 y=1375
setbusxy bus=78 x=4025 y=1375
setbusxy bus=79 x=4250 y=1375
setbusxy bus=80 x=4025 y=900
setbusxy bus=81 x=4025 y=425
setbusxy bus=82 x=4025 y=175
setbusxy bus=83 x=4275 y=175
setbusxy bus=84 x=4700 y=425
setbusxy bus=85 x=4700 y=900
setbusxy bus=86 x=3255 y=725
setbusxy bus=87 x=3050 y=1125
setbusxy bus=88 x=2950 y=1300
setbusxy bus=89 x=2775 y=1125
setbusxy bus=90 x=2775 y=900
setbusxy bus=91 x=2550 y=1125
setbusxy bus=92 x=2550 y=825
setbusxy bus=93 x=2325 y=1125
setbusxy bus=94 x=2325 y=850
setbusxy bus=95 x=2025 y=1125
setbusxy bus=96 x=2025 y=925
setbusxy bus=97 x=3525 y=2100
setbusxy bus=98 x=3800 y=2100
setbusxy bus=99 x=4350 y=2100
setbusxy bus=100 x=4650 y=2100
setbusxy bus=101 x=3525 y=2450
setbusxy bus=102 x=3750 y=2450
setbusxy bus=103 x=4075 y=2450
setbusxy bus=104 x=4775 y=2450
setbusxy bus=105 x=3525 y=2725
setbusxy bus=106 x=3750 y=2725
setbusxy bus=107 x=4325 y=2725
setbusxy bus=108 x=3525 y=3050
setbusxy bus=109 x=3975 y=3050
setbusxy bus=110 x=4275 y=3050
setbusxy bus=111 x=4275 y=3625
setbusxy bus=112 x=4275 y=2925
setbusxy bus=113 x=4800 y=2925
setbusxy bus=114 x=5125 y=2925
setbusxy bus=135 x=1600 y=2325
setbusxy bus=149 x=300 y=1500
setbusxy bus=150 x=100 y=1500
setbusxy bus=151 x=3187 y=3928
setbusxy bus=152 x=1600 y=1500
setbusxy bus=160 x=3175 y=1850
setbusxy bus=197 x=3525 y=2200
setbusxy bus=250 x=2050 y=3650
setbusxy bus=300 x=3245 y=4010
setbusxy bus=450 x=5450 y=2100
setbusxy bus=610 x=3275 y=1300
setbusxy bus=150r x=100 y=1500
setbusxy bus=160r x=3175 y=1850
setbusxy bus=25r x=1500 y=3150
setbusxy bus=300_open x=0 y=0
setbusxy bus=61s x=3175 y=1300
setbusxy bus=94_open x=0 y=0
setbusxy bus=9r x=1200 y=1725
set maxcontroliter=30
